Circuit: * C:\Users\danda\Desktop\Projects\uHAB\Simulations\ad8541_inverting_amplifier.asc

Instance "m:u1:6": Length shorter than recommended for a level 2 MOSFET.
Instance "m:u1:5": Length shorter than recommended for a level 2 MOSFET.
Instance "m:u1:4": Length shorter than recommended for a level 2 MOSFET.
Instance "m:u1:3": Length shorter than recommended for a level 2 MOSFET.
Instance "m:u1:2": Length shorter than recommended for a level 2 MOSFET.
Instance "m:u1:1": Length shorter than recommended for a level 2 MOSFET.
Direct Newton iteration for .op point succeeded.

Date: Sat Nov 24 23:48:05 2018
Total elapsed time: 0.265 seconds.

tnom = 27
temp = 27
method = modified trap
totiter = 4722
traniter = 4707
tranpoints = 2245
accept = 1983
rejected = 262
matrix size = 47
fillins = 23
solver = Normal
Matrix Compiler1: 3.17 KB object code size  1.3/0.6/[0.3]
Matrix Compiler2: 4.43 KB object code size  0.8/1.0/[0.6]

