Circuit: * C:\Users\danda\Desktop\Projects\uHAB\Simulations\LTC3112_9V_Switching_Regulator.asc

Direct Newton iteration for .op point succeeded.
Ignoring empty pin current: Ix(u1:6)
Ignoring empty pin current: Ix(u1:10)
Ignoring empty pin current: Ix(u1:11)
Ignoring empty pin current: Ix(u1:13)
Ignoring empty pin current: Ix(u1:16)
Ignoring empty pin current: Ix(u1:6)
Ignoring empty pin current: Ix(u1:10)
Ignoring empty pin current: Ix(u1:11)
Ignoring empty pin current: Ix(u1:13)
Ignoring empty pin current: Ix(u1:16)
